
 *******************************************************************************

         NASA-GLENN CHEMICAL EQUILIBRIUM PROGRAM CEA2, FEBRUARY 5, 2004
                   BY  BONNIE MCBRIDE AND SANFORD GORDON
      REFS: NASA RP-1311, PART I, 1994 AND NASA RP-1311, PART II, 1996

 *******************************************************************************



  
 ### CEA analysis performed on Tue 04-Nov-2025 23:18:50
  
 # Problem Type: "Rocket" (Infinite Area Combustor)
  
 prob case = 1fvp___________8365 ro equilibrium
  
 # Pressure (1 value):
 p,psia= 300
 # Supersonic Area Ratio (1 value):
 supar= 3.65
  
 # Oxidizer/Fuel Wt. ratio (6 values):
 o/f = 1.1, 1.2, 1.3, 1.5, 1.6, 1.7
  
 # You selected the following fuels and oxidizers:
 reac
 fuel C2H5OH(L)         wt%= 75.0000
 fuel H2O(L)            wt%= 25.0000
 oxid O2(L)             wt%=100.0000
  
 # You selected these options for output:
 # short version of output
 output short
 # Proportions of any products will be expressed as Mass Fractions.
 output massf
 # Heat will be expressed as siunits
 output siunits
  
 # Input prepared by this script:/var/www/sites/cearun/cgi-bin/CEARUN/prepareInpu
 tFile.cgi
  
 ### IMPORTANT:  The following line is the end of your CEA input file!
 end





              THEORETICAL ROCKET PERFORMANCE ASSUMING EQUILIBRIUM

           COMPOSITION DURING EXPANSION FROM INFINITE AREA COMBUSTOR

 Pin =   300.0 PSIA
 CASE = 1fvp___________

             REACTANT                    WT FRACTION      ENERGY      TEMP
                                          (SEE NOTE)     KJ/KG-MOL      K  
 FUEL        C2H5OH(L)                    0.7500000         0.000      0.000
 FUEL        H2O(L)                       0.2500000         0.000      0.000
 OXIDANT     O2(L)                        1.0000000    -12979.000     90.170

 O/F=    1.10000  %FUEL= 47.619048  R,EQ.RATIO= 1.292470  PHI,EQ.RATIO= 1.420758

                 CHAMBER   THROAT     EXIT
 Pinf/P            1.0000   1.7264   17.438
 P, BAR            20.684   11.981   1.1862
 T, K             3527.08  3364.75  2765.42
 RHO, KG/CU M    1.3972 0 8.6121-1 1.0970-1
 H, KJ/KG         -212.46  -996.09 -3837.73
 U, KJ/KG        -1692.81 -2387.28 -4919.03
 G, KJ/KG        -47225.7 -45845.6 -40698.7
 S, KJ/(KG)(K)    13.3292  13.3292  13.3292

 M, (1/n)          19.810   20.110   21.264
 (dLV/dLP)t      -1.05227 -1.04659 -1.02067
 (dLV/dLT)p        1.9194   1.8612   1.4681
 Cp, KJ/(KG)(K)    9.2299   9.0115   6.5133
 GAMMAs            1.1303   1.1266   1.1220
 SON VEL,M/SEC     1293.5   1251.9   1101.5
 MACH NUMBER        0.000    1.000    2.445

 PERFORMANCE PARAMETERS

 Ae/At                      1.0000   3.6500
 CSTAR, M/SEC               1918.5   1918.5
 CF                         0.6525   1.4035
 Ivac, M/SEC                2363.2   3094.3
 Isp, M/SEC                 1251.9   2692.7


 MASS FRACTIONS

 *CO              0.31283  0.30347  0.26370
 *CO2             0.19080  0.20553  0.26803
 COOH             0.00001  0.00001  0.00000
 *H               0.00248  0.00217  0.00105
 HCO              0.00002  0.00001  0.00000
 HO2              0.00012  0.00008  0.00001
 *H2              0.01270  0.01219  0.01059
 H2O              0.36646  0.37883  0.42147
 H2O2             0.00002  0.00001  0.00000
 *O               0.01347  0.01068  0.00254
 *OH              0.06768  0.05828  0.02353
 *O2              0.03340  0.02876  0.00907

  * THERMODYNAMIC PROPERTIES FITTED TO 20000.K

 NOTE. WEIGHT FRACTION OF FUEL IN TOTAL FUELS AND OF OXIDANT IN TOTAL OXIDANTS










              THEORETICAL ROCKET PERFORMANCE ASSUMING EQUILIBRIUM

           COMPOSITION DURING EXPANSION FROM INFINITE AREA COMBUSTOR

 Pin =   300.0 PSIA
 CASE = 1fvp___________

             REACTANT                    WT FRACTION      ENERGY      TEMP
                                          (SEE NOTE)     KJ/KG-MOL      K  
 FUEL        C2H5OH(L)                    0.7500000         0.000      0.000
 FUEL        H2O(L)                       0.2500000         0.000      0.000
 OXIDANT     O2(L)                        1.0000000    -12979.000     90.170

 O/F=    1.20000  %FUEL= 45.454545  R,EQ.RATIO= 1.215652  PHI,EQ.RATIO= 1.302361

                 CHAMBER   THROAT     EXIT
 Pinf/P            1.0000   1.7250   17.284
 P, BAR            20.684   11.991   1.1967
 T, K             3538.67  3380.01  2809.79
 RHO, KG/CU M    1.4302 0 8.8140-1 1.1219-1
 H, KJ/KG         -221.24  -986.00 -3764.61
 U, KJ/KG        -1667.46 -2346.45 -4831.32
 G, KJ/KG        -46546.8 -45234.5 -40548.2
 S, KJ/(KG)(K)    13.0912  13.0912  13.0912

 M, (1/n)          20.344   20.657   21.901
 (dLV/dLP)t      -1.05684 -1.05187 -1.02921
 (dLV/dLT)p        1.9989   1.9570   1.6547
 Cp, KJ/(KG)(K)    9.5706   9.4911   7.9030
 GAMMAs            1.1284   1.1243   1.1140
 SON VEL,M/SEC     1277.5   1236.7   1090.1
 MACH NUMBER        0.000    1.000    2.442

 PERFORMANCE PARAMETERS

 Ae/At                      1.0000   3.6500
 CSTAR, M/SEC               1897.5   1897.5
 CF                         0.6518   1.4029
 Ivac, M/SEC                2336.8   3062.8
 Isp, M/SEC                 1236.7   2662.1


 MASS FRACTIONS

 *CO              0.28440  0.27413  0.22889
 *CO2             0.20446  0.22062  0.29172
 COOH             0.00001  0.00001  0.00000
 *H               0.00229  0.00202  0.00106
 HCO              0.00001  0.00001  0.00000
 HO2              0.00016  0.00011  0.00001
 *H2              0.01055  0.01003  0.00818
 H2O              0.35948  0.37147  0.41431
 H2O2             0.00002  0.00001  0.00000
 *O               0.01639  0.01344  0.00441
 *OH              0.07422  0.06506  0.03142
 *O2              0.04800  0.04311  0.02000

  * THERMODYNAMIC PROPERTIES FITTED TO 20000.K

 NOTE. WEIGHT FRACTION OF FUEL IN TOTAL FUELS AND OF OXIDANT IN TOTAL OXIDANTS










              THEORETICAL ROCKET PERFORMANCE ASSUMING EQUILIBRIUM

           COMPOSITION DURING EXPANSION FROM INFINITE AREA COMBUSTOR

 Pin =   300.0 PSIA
 CASE = 1fvp___________

             REACTANT                    WT FRACTION      ENERGY      TEMP
                                          (SEE NOTE)     KJ/KG-MOL      K  
 FUEL        C2H5OH(L)                    0.7500000         0.000      0.000
 FUEL        H2O(L)                       0.2500000         0.000      0.000
 OXIDANT     O2(L)                        1.0000000    -12979.000     90.170

 O/F=    1.30000  %FUEL= 43.478261  R,EQ.RATIO= 1.147452  PHI,EQ.RATIO= 1.202180

                 CHAMBER   THROAT     EXIT
 Pinf/P            1.0000   1.7240   17.201
 P, BAR            20.684   11.997   1.2025
 T, K             3542.12  3385.89  2832.13
 RHO, KG/CU M    1.4638 0 9.0196-1 1.1474-1
 H, KJ/KG         -229.26  -976.00 -3692.97
 U, KJ/KG        -1642.35 -2306.16 -4741.02
 G, KJ/KG        -45816.6 -44552.7 -40142.6
 S, KJ/(KG)(K)    12.8701  12.8701  12.8701

 M, (1/n)          20.842   21.164   22.468
 (dLV/dLP)t      -1.05955 -1.05510 -1.03551
 (dLV/dLT)p        2.0477   2.0170   1.7923
 Cp, KJ/(KG)(K)    9.7072   9.7173   8.8347
 GAMMAs            1.1271   1.1228   1.1099
 SON VEL,M/SEC     1262.0   1222.1   1078.5
 MACH NUMBER        0.000    1.000    2.440

 PERFORMANCE PARAMETERS

 Ae/At                      1.0000   3.6500
 CSTAR, M/SEC               1876.5   1876.5
 CF                         0.6513   1.4026
 Ivac, M/SEC                2310.5   3030.2
 Isp, M/SEC                 1222.1   2632.0


 MASS FRACTIONS

 *CO              0.25888  0.24794  0.19899
 *CO2             0.21624  0.23344  0.31037
 COOH             0.00001  0.00001  0.00000
 *H               0.00209  0.00184  0.00101
 HCO              0.00001  0.00001  0.00000
 HO2              0.00020  0.00014  0.00002
 *H2              0.00887  0.00836  0.00648
 H2O              0.35143  0.36292  0.40453
 H2O2             0.00002  0.00001  0.00000
 *O               0.01892  0.01584  0.00626
 *OH              0.07891  0.06996  0.03739
 *O2              0.06440  0.05951  0.03495

  * THERMODYNAMIC PROPERTIES FITTED TO 20000.K

 NOTE. WEIGHT FRACTION OF FUEL IN TOTAL FUELS AND OF OXIDANT IN TOTAL OXIDANTS










              THEORETICAL ROCKET PERFORMANCE ASSUMING EQUILIBRIUM

           COMPOSITION DURING EXPANSION FROM INFINITE AREA COMBUSTOR

 Pin =   300.0 PSIA
 CASE = 1fvp___________

             REACTANT                    WT FRACTION      ENERGY      TEMP
                                          (SEE NOTE)     KJ/KG-MOL      K  
 FUEL        C2H5OH(L)                    0.7500000         0.000      0.000
 FUEL        H2O(L)                       0.2500000         0.000      0.000
 OXIDANT     O2(L)                        1.0000000    -12979.000     90.170

 O/F=    1.50000  %FUEL= 40.000000  R,EQ.RATIO= 1.031694  PHI,EQ.RATIO= 1.041889

                 CHAMBER   THROAT     EXIT
 Pinf/P            1.0000   1.7230   17.129
 P, BAR            20.684   12.004   1.2076
 T, K             3533.47  3380.10  2840.93
 RHO, KG/CU M    1.5308 0 9.4310-1 1.1989-1
 H, KJ/KG         -243.37  -956.92 -3557.65
 U, KJ/KG        -1594.60 -2229.80 -4564.89
 G, KJ/KG        -44313.6 -43114.2 -38990.3
 S, KJ/(KG)(K)    12.4722  12.4722  12.4722

 M, (1/n)          21.742   22.079   23.451
 (dLV/dLP)t      -1.06088 -1.05693 -1.04031
 (dLV/dLT)p        2.0783   2.0571   1.9008
 Cp, KJ/(KG)(K)    9.5796   9.6583   9.3555
 GAMMAs            1.1255   1.1212   1.1069
 SON VEL,M/SEC     1233.2   1194.6   1055.9
 MACH NUMBER        0.000    1.000    2.438

 PERFORMANCE PARAMETERS

 Ae/At                      1.0000   3.6500
 CSTAR, M/SEC               1835.9   1835.9
 CF                         0.6507   1.4023
 Ivac, M/SEC                2260.1   2965.8
 Isp, M/SEC                 1194.6   2574.6


 MASS FRACTIONS

 *CO              0.21537  0.20371  0.15139
 *CO2             0.23477  0.25311  0.33531
 COOH             0.00001  0.00001  0.00000
 *H               0.00172  0.00151  0.00083
 HCO              0.00001  0.00000  0.00000
 HO2              0.00028  0.00019  0.00004
 *H2              0.00647  0.00603  0.00431
 H2O              0.33419  0.34465  0.38276
 H2O2             0.00003  0.00002  0.00000
 *O               0.02265  0.01940  0.00909
 *OH              0.08399  0.07530  0.04402
 *O2              0.10051  0.09608  0.07225

  * THERMODYNAMIC PROPERTIES FITTED TO 20000.K

 NOTE. WEIGHT FRACTION OF FUEL IN TOTAL FUELS AND OF OXIDANT IN TOTAL OXIDANTS










              THEORETICAL ROCKET PERFORMANCE ASSUMING EQUILIBRIUM

           COMPOSITION DURING EXPANSION FROM INFINITE AREA COMBUSTOR

 Pin =   300.0 PSIA
 CASE = 1fvp___________

             REACTANT                    WT FRACTION      ENERGY      TEMP
                                          (SEE NOTE)     KJ/KG-MOL      K  
 FUEL        C2H5OH(L)                    0.7500000         0.000      0.000
 FUEL        H2O(L)                       0.2500000         0.000      0.000
 OXIDANT     O2(L)                        1.0000000    -12979.000     90.170

 O/F=    1.60000  %FUEL= 38.461538  R,EQ.RATIO= 0.982153  PHI,EQ.RATIO= 0.976771

                 CHAMBER   THROAT     EXIT
 Pinf/P            1.0000   1.7228   17.116
 P, BAR            20.684   12.006   1.2085
 T, K             3524.15  3371.65  2835.32
 RHO, KG/CU M    1.5638 0 9.6338-1 1.2244-1
 H, KJ/KG         -249.61  -947.96 -3494.69
 U, KJ/KG        -1572.30 -2194.23 -4481.66
 G, KJ/KG        -43571.4 -42395.1 -38348.8
 S, KJ/(KG)(K)    12.2928  12.2928  12.2928

 M, (1/n)          22.153   22.494   23.885
 (dLV/dLP)t      -1.06022 -1.05634 -1.04001
 (dLV/dLT)p        2.0717   2.0511   1.8980
 Cp, KJ/(KG)(K)    9.3991   9.4787   9.1983
 GAMMAs            1.1251   1.1207   1.1066
 SON VEL,M/SEC     1219.9   1181.8   1045.1
 MACH NUMBER        0.000    1.000    2.438

 PERFORMANCE PARAMETERS

 Ae/At                      1.0000   3.6500
 CSTAR, M/SEC               1816.7   1816.7
 CF                         0.6505   1.4023
 Ivac, M/SEC                2236.4   2935.0
 Isp, M/SEC                 1181.8   2547.6


 MASS FRACTIONS

 *CO              0.19683  0.18501  0.13236
 *CO2             0.24186  0.26043  0.34317
 COOH             0.00001  0.00001  0.00000
 *H               0.00155  0.00136  0.00073
 HCO              0.00001  0.00000  0.00000
 HO2              0.00031  0.00022  0.00004
 *H2              0.00560  0.00519  0.00358
 H2O              0.32557  0.33556  0.37198
 H2O2             0.00003  0.00002  0.00000
 *O               0.02390  0.02057  0.00998
 *OH              0.08492  0.07631  0.04537
 *O2              0.11941  0.11531  0.09278

  * THERMODYNAMIC PROPERTIES FITTED TO 20000.K

 NOTE. WEIGHT FRACTION OF FUEL IN TOTAL FUELS AND OF OXIDANT IN TOTAL OXIDANTS










              THEORETICAL ROCKET PERFORMANCE ASSUMING EQUILIBRIUM

           COMPOSITION DURING EXPANSION FROM INFINITE AREA COMBUSTOR

 Pin =   300.0 PSIA
 CASE = 1fvp___________

             REACTANT                    WT FRACTION      ENERGY      TEMP
                                          (SEE NOTE)     KJ/KG-MOL      K  
 FUEL        C2H5OH(L)                    0.7500000         0.000      0.000
 FUEL        H2O(L)                       0.2500000         0.000      0.000
 OXIDANT     O2(L)                        1.0000000    -12979.000     90.170

 O/F=    1.70000  %FUEL= 37.037037  R,EQ.RATIO= 0.937152  PHI,EQ.RATIO= 0.919314

                 CHAMBER   THROAT     EXIT
 Pinf/P            1.0000   1.7226   17.112
 P, BAR            20.684   12.008   1.2088
 T, K             3512.67  3360.82  2825.75
 RHO, KG/CU M    1.5963 0 9.8338-1 1.2497-1
 H, KJ/KG         -255.38  -939.43 -3434.93
 U, KJ/KG        -1551.12 -2160.48 -4402.22
 G, KJ/KG        -42846.2 -41689.1 -37696.9
 S, KJ/(KG)(K)    12.1249  12.1249  12.1249

 M, (1/n)          22.540   22.885   24.289
 (dLV/dLP)t      -1.05903 -1.05515 -1.03873
 (dLV/dLT)p        2.0561   2.0344   1.8740
 Cp, KJ/(KG)(K)    9.1778   9.2463   8.9020
 GAMMAs            1.1247   1.1204   1.1066
 SON VEL,M/SEC     1207.2   1169.7   1034.6
 MACH NUMBER        0.000    1.000    2.437

 PERFORMANCE PARAMETERS

 Ae/At                      1.0000   3.6500
 CSTAR, M/SEC               1798.3   1798.3
 CF                         0.6504   1.4023
 Ivac, M/SEC                2213.6   2905.3
 Isp, M/SEC                 1169.7   2521.7


 MASS FRACTIONS

 *CO              0.18009  0.16824  0.11581
 *CO2             0.24774  0.26638  0.34877
 COOH             0.00001  0.00001  0.00000
 *H               0.00140  0.00122  0.00064
 HCO              0.00001  0.00000  0.00000
 HO2              0.00034  0.00024  0.00005
 *H2              0.00488  0.00450  0.00301
 H2O              0.31715  0.32672  0.36158
 H2O2             0.00003  0.00002  0.00000
 *O               0.02480  0.02141  0.01056
 *OH              0.08508  0.07654  0.04580
 *O2              0.13847  0.13473  0.11377

  * THERMODYNAMIC PROPERTIES FITTED TO 20000.K

 NOTE. WEIGHT FRACTION OF FUEL IN TOTAL FUELS AND OF OXIDANT IN TOTAL OXIDANTS



